#Put Keywords Here, check Charge and Multiplicity.

 12-ethanediol Gaussian Optimization on node42.bme.utexas.edu

0  1
C           0.70270        -0.59330        -0.30230 
C          -0.70270        -0.59330         0.30230 
H           2.30410         0.50490        -0.22960 
H          -2.30410         0.50490         0.22960 
O           1.42640         0.54290         0.17440 
O          -1.42640         0.54290        -0.17440 
H           1.22400        -1.50490        -0.01000 
H           0.63080        -0.54850        -1.38900 
H          -1.22400        -1.50490         0.01000 
H          -0.63080        -0.54850         1.38900 

