%Chk=12-ethanediol-pop.chk
%Mem=700MB
%Nproc=2
#P HF/6-31G(2d) MaxDisk=96000MW Pop=SaveMixed

 12-ethanediol Gaussian SP Calculation on node2.bme.utexas.edu

0  1
C          	       0.280458    0.701252    0.523262
C         	      -0.280458   -0.701252    0.523262
H          	       0.209636    2.209163   -0.690751
H         	      -0.209636   -2.209163   -0.690751
O         	      -0.280458    1.413052   -0.544781
O          	       0.280458   -1.413052   -0.544781
H          	       0.039906    1.177670    1.472709
H          	       1.362249    0.644112    0.436718
H         	      -0.039906   -1.177670    1.472709
H         	      -1.362249   -0.644112    0.436718
	
